
 ANSYS Multiphysics                                


 *------------------------------------------------------------------*
 |                                                                  |
 |   W E L C O M E   T O   T H E   A N S Y S (R)  P R O G R A M     |
 |                                                                  |
 *------------------------------------------------------------------*




 ***************************************************************
 *            ANSYS Release 18.0     LEGAL NOTICES             *
 ***************************************************************
 *                                                             *
 * Copyright 2016 SAS IP, Inc.  All rights reserved.           *
 * Unauthorized use, distribution or duplication is            *
 * prohibited.                                                 *
 *                                                             *
 * Ansys is a registered trademark of ANSYS, Inc. or its       *
 * subsidiaries in the United States or other countries.       *
 * See the ANSYS, Inc. online documentation or the ANSYS, Inc. *
 * documentation CD or online help for the complete Legal      *
 * Notice.                                                     *
 *                                                             *
 ***************************************************************
 *                                                             *
 * THIS ANSYS SOFTWARE PRODUCT AND PROGRAM DOCUMENTATION       *
 * INCLUDE TRADE SECRETS AND CONFIDENTIAL AND PROPRIETARY      *
 * PRODUCTS OF ANSYS, INC., ITS SUBSIDIARIES, OR LICENSORS.    *
 * The software products and documentation are furnished by    *
 * ANSYS, Inc. or its subsidiaries under a software license    *
 * agreement that contains provisions concerning               *
 * non-disclosure, copying, length and nature of use,          *
 * compliance with exporting laws, warranties, disclaimers,    *
 * limitations of liability, and remedies, and other           *
 * provisions.  The software products and documentation may be *
 * used, disclosed, transferred, or copied only in accordance  *
 * with the terms and conditions of that software license      *
 * agreement.                                                  *
 *                                                             *
 * ANSYS, Inc. is a UL registered                              *
 * ISO 9001:2008 company.                                      *
 *                                                             *
 ***************************************************************
 *                                                             *
 * This product is subject to U.S. laws governing export and   *
 * re-export.                                                  *
 *                                                             *
 * For U.S. Government users, except as specifically granted   *
 * by the ANSYS, Inc. software license agreement, the use,     *
 * duplication, or disclosure by the United States Government  *
 * is subject to restrictions stated in the ANSYS, Inc.        *
 * software license agreement and FAR 12.212 (for non-DOD      *
 * licenses).                                                  *
 *                                                             *
 ***************************************************************

 Release 18.0
     
 Point Releases and Patches installed:   
     
 ANSYS, Inc. Products Release 18.0   
 ANSYS Mechanical Products Release 18.0  
 ANSYS Autodyn Release 18.0  
 ANSYS LS-DYNA Release 18.0  
 ANSYS AIM Release 18.0  
 ANSYS CFX (includes ANSYS CFD-Post) Release 18.0
 ANSYS Fluent (includes ANSYS CFD-Post) Release 18.0 
 ANSYS TurboGrid Release 18.0
 ANSYS FENSAP-ICE Release 18.0   
 ANSYS Polyflow (includes ANSYS CFD-Post) Release 18.0   
 ANSYS Forte Release 18.0
 ANSYS Chemkin Release 18.0  
 ANSYS ICEM CFD Release 18.0 
 ANSYS Aqwa Release 18.0 
 ANSYS Icepak (includes ANSYS CFD-Post) Release 18.0 
 AutoCAD Release 18.0
 ACIS Release 18.0   
 Catia, Version 4 Release 18.0   
 Catia, Version 6 Release 18.0   
 Creo Elements/Direct Modeling Release 18.0  
 Inventor Release 18.0   
 JTOpen Release 18.0 
 NX Release 18.0 
 Parasolid Release 18.0  
 Creo Parametric (formerly Pro/ENGINEER) Release 18.0
 Solid Edge Release 18.0 
 SolidWorks Release 18.0 
 ANSYS, Inc. License Manager Release 18.0


          *****  ANSYS COMMAND LINE ARGUMENTS  *****
  BATCH MODE REQUESTED (-b)    = NOLIST
  INPUT FILE COPY MODE (-c)    = COPY
  DISTRIBUTED MEMORY PARALLEL REQUESTED
       2 PARALLEL PROCESSES REQUESTED WITH SINGLE THREAD PER PROCESS
    TOTAL OF     2 CORES REQUESTED
  MPI OPTION                   = INTELMPI
  INPUT FILE NAME              = C:\Users\hp\AppData\Local\Temp\WB_DESKTOP-7OHJDQC_hp_10344_2\_ProjectScratch\ScrBBAD\dummy.dat
  OUTPUT FILE NAME             = C:\Users\hp\AppData\Local\Temp\WB_DESKTOP-7OHJDQC_hp_10344_2\_ProjectScratch\ScrBBAD\solve.out
  START-UP FILE MODE           = NOREAD
  STOP FILE MODE               = NOREAD

 RELEASE= Release 18.0         BUILD= 18.0      UP20161219   VERSION=WINDOWS x64 
 CURRENT JOBNAME=file0  11:12:27  NOV 30, 2023 CP=      0.016


 PARAMETER _DS_PROGRESS =     999.0000000    

 /INPUT FILE= ds.dat  LINE=       0



 *** NOTE ***                            CP =       0.031   TIME= 11:12:27
 The /CONFIG,NOELDB command is not valid in a Distributed ANSYS          
 solution.  Command is ignored.                                          

 *GET  _WALLSTRT  FROM  ACTI  ITEM=TIME WALL  VALUE=  11.2075000    

 TITLE= 
 unsaved_project--Static Structural (A5)                                       


 SET PARAMETER DIMENSIONS ON  _WB_PROJECTSCRATCH_DIR
  TYPE=STRI  DIMENSIONS=      248        1        1

 PARAMETER _WB_PROJECTSCRATCH_DIR(1) = C:\Users\hp\AppData\Local\Temp\WB_DESKTOP-7OHJDQC_hp_10344_2\_ProjectScratch\ScrBBAD\

 SET PARAMETER DIMENSIONS ON  _WB_SOLVERFILES_DIR
  TYPE=STRI  DIMENSIONS=      248        1        1

 PARAMETER _WB_SOLVERFILES_DIR(1) = C:\Users\hp\AppData\Local\Temp\WB_DESKTOP-7OHJDQC_hp_10344_2\unsaved_project_files\dp0\SYS\MECH\

 SET PARAMETER DIMENSIONS ON  _WB_USERFILES_DIR
  TYPE=STRI  DIMENSIONS=      248        1        1

 PARAMETER _WB_USERFILES_DIR(1) = C:\Users\hp\AppData\Local\Temp\WB_DESKTOP-7OHJDQC_hp_10344_2\unsaved_project_files\user_files\
 --- Data in consistent NMM units. See Solving Units in the help system for more

 MPA UNITS SPECIFIED FOR INTERNAL    
  LENGTH      = MILLIMETERS (mm)
  MASS        = TONNE (Mg)
  TIME        = SECONDS (sec)
  TEMPERATURE = CELSIUS (C)
  TOFFSET     = 273.0
  FORCE       = NEWTON (N)
  HEAT        = MILLIJOULES (mJ)

 INPUT  UNITS ARE ALSO SET TO MPA 

 *** ANSYS - ENGINEERING ANALYSIS SYSTEM  RELEASE Release 18.0     18.0     ***
 DISTRIBUTED ANSYS Multiphysics                                

 00000000  VERSION=WINDOWS x64   11:12:27  NOV 30, 2023 CP=      0.031

 unsaved_project--Static Structural (A5)                                       



          ***** ANSYS ANALYSIS DEFINITION (PREP7) *****
 *********** Nodes for the whole assembly ***********
 *********** Elements for Body 1 "Solid" ***********
 *********** Elements for Body 2 "Surface Body" ***********
 *********** Send User Defined Coordinate System(s) ***********
 *********** Set Reference Temperature ***********
 *********** Send Materials ***********
 *********** Send Sheet Properties ***********
 *********** Create Contact "Contact Region" ***********
             Real Constant Set For Above Contact Is 4 & 3
 *********** Fixed Supports ***********
 ******* Constant Zero Displacement X *******
 ******* Constant Zero Displacement Z *******
 *********** Define Force Using Surface Effect Elements ***********
 *********** Create Displacement Tables and Functions ******


 ***** ROUTINE COMPLETED *****  CP =         0.062


 --- Number of total nodes = 61651
 --- Number of contact elements = 281
 --- Number of spring elements = 0
 --- Number of bearing elements = 0
 --- Number of solid elements = 13072
 --- Number of total elements = 13353

 *GET  _WALLBSOL  FROM  ACTI  ITEM=TIME WALL  VALUE=  11.2075000    
 ****************************************************************************
 *************************    SOLUTION       ********************************
 ****************************************************************************

 *****  ANSYS SOLUTION ROUTINE  *****


 PERFORM A STATIC ANALYSIS
  THIS WILL BE A NEW ANALYSIS

 USE A MAXIMUM OF     1 EQUILIBRIUM ITERATIONS EACH SUBSTEP

 *** WARNING ***                         CP =       0.062   TIME= 11:12:27
 Using 1 iteration per substep may result in unconverged solutions for   
 nonlinear analysis and the program may not indicate divergence in this  
 case.  Check your results.                                              

 DO NOT USE PREDICTOR METHOD FOR  ALL DEGREES OF FREEDOM

 USE SPARSE MATRIX DIRECT SOLVER

 CONTACT INFORMATION PRINTOUT LEVEL       1

 DO NOT COMBINE ELEMENT MATRIX FILES (.emat) AFTER DISTRIBUTED PARALLEL SOLUTION

 DO NOT COMBINE ELEMENT SAVE DATA FILES (.esav) AFTER DISTRIBUTED PARALLEL SOLUTION

 NLDIAG: Nonlinear diagnostics CONT option is set to ON. 
         Writing frequency : each ITERATION.

 DO NOT SAVE ANY RESTART FILES AT ALL
 ****************************************************
 ******************* SOLVE FOR LS 1 OF 1 ****************

 SELECT       FOR ITEM=TYPE COMPONENT=    
  IN RANGE         5 TO          5 STEP          1

         67  ELEMENTS (OF      13353  DEFINED) SELECTED BY  ESEL  COMMAND.

 SELECT      ALL NODES HAVING ANY ELEMENT IN ELEMENT SET.

       83 NODES (OF    61651  DEFINED) SELECTED FROM
       67 SELECTED ELEMENTS BY NSLE COMMAND.

 SPECIFIED SURFACE LOAD PRES FOR ALL SELECTED ELEMENTS  LKEY =  1   KVAL = 1
      SET ACCORDING TO TABLE PARAMETER = _LOADVARI50X                    

 SPECIFIED SURFACE LOAD PRES FOR ALL SELECTED ELEMENTS  LKEY =  2   KVAL = 1
      SET ACCORDING TO TABLE PARAMETER = _LOADVARI50Y                    

 SPECIFIED SURFACE LOAD PRES FOR ALL SELECTED ELEMENTS  LKEY =  3   KVAL = 1
      SET ACCORDING TO TABLE PARAMETER = _LOADVARI50Z                    

 ALL SELECT   FOR ITEM=NODE COMPONENT=    
  IN RANGE         1 TO      61651 STEP          1

      61651  NODES (OF      61651  DEFINED) SELECTED BY NSEL  COMMAND.

 ALL SELECT   FOR ITEM=ELEM COMPONENT=    
  IN RANGE         1 TO      13353 STEP          1

      13353  ELEMENTS (OF      13353  DEFINED) SELECTED BY  ESEL  COMMAND.
 *** Set Displacements ***
 CMBLOCK read of NODE component _CM68UY_YP  completed

 SELECT      COMPONENT _CM68UY_YP                      

 SPECIFIED CONSTRAINT UY   FOR SELECTED NODES            1 TO       61651 BY           1
 SET ACCORDING TO TABLE PARAMETER = _LOADVARI68YP

 ALL SELECT   FOR ITEM=NODE COMPONENT=    
  IN RANGE         1 TO      61651 STEP          1

      61651  NODES (OF      61651  DEFINED) SELECTED BY NSEL  COMMAND.
 *** Component For All Non-Zero UY Displacements ***

 SELECT      COMPONENT _CM68UY_YP                      

 DEFINITION OF COMPONENT = _DISPNONZEROUY  ENTITY=NODE

 ALL SELECT   FOR ITEM=NODE COMPONENT=    
  IN RANGE         1 TO      61651 STEP          1

      61651  NODES (OF      61651  DEFINED) SELECTED BY NSEL  COMMAND.

 PRINTOUT RESUMED BY /GOP

 USE       1 SUBSTEPS INITIALLY THIS LOAD STEP FOR ALL  DEGREES OF FREEDOM
 FOR AUTOMATIC TIME STEPPING:
   USE      1 SUBSTEPS AS A MAXIMUM
   USE      1 SUBSTEPS AS A MINIMUM

 TIME=  1.0000    

 ERASE THE CURRENT DATABASE OUTPUT CONTROL TABLE.


 WRITE ALL  ITEMS TO THE DATABASE WITH A FREQUENCY OF NONE
   FOR ALL APPLICABLE ENTITIES

 WRITE NSOL ITEMS TO THE DATABASE WITH A FREQUENCY OF ALL 
   FOR ALL APPLICABLE ENTITIES

 WRITE RSOL ITEMS TO THE DATABASE WITH A FREQUENCY OF ALL 
   FOR ALL APPLICABLE ENTITIES

 WRITE STRS ITEMS TO THE DATABASE WITH A FREQUENCY OF ALL 
   FOR ALL APPLICABLE ENTITIES

 WRITE EPEL ITEMS TO THE DATABASE WITH A FREQUENCY OF ALL 
   FOR ALL APPLICABLE ENTITIES

 WRITE EPPL ITEMS TO THE DATABASE WITH A FREQUENCY OF ALL 
   FOR ALL APPLICABLE ENTITIES

 NONLINEAR STABILIZATION CONTROL:
 KEY=OFF 


 *GET  ANSINTER_  FROM  ACTI  ITEM=INT        VALUE=  0.00000000    

 *IF  ANSINTER_                         ( =   0.00000     )  NE  
      0                                 ( =   0.00000     )  THEN    

 *ENDIF

 *****  ANSYS SOLVE    COMMAND  *****

 *** WARNING ***                         CP =       0.078   TIME= 11:12:27
 Element shape checking is currently inactive.  Issue SHPP,ON or         
 SHPP,WARN to reactivate, if desired.                                    

 *** NOTE ***                            CP =       0.078   TIME= 11:12:27
 The model data was checked and warning messages were found.             
  Please review output or errors file (                                  
 C:\Users\hp\AppData\Local\Temp\WB_DESKTOP-7OHJDQC_hp_10344_2\_ProjectSc 
 cratch\ScrBBAD\file0.err ) for these warning messages.                  

 *** SELECTION OF ELEMENT TECHNOLOGIES FOR APPLICABLE ELEMENTS ***
      --- GIVE SUGGESTIONS AND RESET THE KEY OPTIONS ---

 ELEMENT TYPE    1 IS SOLID186. KEYOPT(2)=0 IS SUGGESTED AND HAS BEEN RESET.
  KEYOPT(1-12)=    0    0    0    0    0    0    0    0    0    0    0    0

 ELEMENT TYPE    2 IS SHELL181. IT IS ASSOCIATED WITH ELASTOPLASTIC 
 MATERIALS ONLY. KEYOPT(8)=2 IS SUGGESTED AND KEYOPT(3)=2 IS SUGGESTED FOR
 HIGHER ACCURACY OF MEMBRANE STRESSES; OTHERWISE, KEYOPT(3)=0 IS SUGGESTED. 
 KEYOPT(8) HAS BEEN RESET BUT KEYOPT(3) CAN NOT BE RESET HERE. PLEASE RESET 
 IT MANUALLY IF NECESSARY.
  KEYOPT(1-12)=    0    0    2    0    0    0    0    2    0    0    0    0



 *** ANSYS - ENGINEERING ANALYSIS SYSTEM  RELEASE Release 18.0     18.0     ***
 DISTRIBUTED ANSYS Multiphysics                                

 00000000  VERSION=WINDOWS x64   11:12:27  NOV 30, 2023 CP=      0.078

 unsaved_project--Static Structural (A5)                                       



                       S O L U T I O N   O P T I O N S

   PROBLEM DIMENSIONALITY. . . . . . . . . . . . .3-D                  
   DEGREES OF FREEDOM. . . . . . UX   UY   UZ   ROTX ROTY ROTZ
   ANALYSIS TYPE . . . . . . . . . . . . . . . . .STATIC (STEADY-STATE)
   OFFSET TEMPERATURE FROM ABSOLUTE ZERO . . . . .  273.15    
   EQUATION SOLVER OPTION. . . . . . . . . . . . .SPARSE             
   NEWTON-RAPHSON OPTION . . . . . . . . . . . . .PROGRAM CHOSEN   
   GLOBALLY ASSEMBLED MATRIX . . . . . . . . . . .SYMMETRIC  

 *** WARNING ***                         CP =       0.078   TIME= 11:12:27
 Material number 5 (used by element 13287 ) should normally have at      
 least one MP or one TB type command associated with it.  Output of      
 energy by material may not be available.                                

 *** NOTE ***                            CP =       0.078   TIME= 11:12:27
 The step data was checked and warning messages were found.              
  Please review output or errors file (                                  
 C:\Users\hp\AppData\Local\Temp\WB_DESKTOP-7OHJDQC_hp_10344_2\_ProjectSc 
 cratch\ScrBBAD\file0.err ) for these warning messages.                  

 *** NOTE ***                            CP =       0.078   TIME= 11:12:27
 This nonlinear analysis defaults to using the full Newton-Raphson       
 solution procedure.  This can be modified using the NROPT command.      

 *** NOTE ***                            CP =       0.078   TIME= 11:12:27
 The conditions for direct assembly have been met.  No .emat or .erot    
 files will be produced.                                                 

 *** NOTE ***                            CP =       0.078   TIME= 11:12:27
 Symmetric Deformable- deformable contact pair identified by real        
 constant set 3 and contact element type 3 has been set up.  The         
 companion pair has real constant set ID 4.  Both pairs should have the  
 same behavior.                                                          
 ANSYS will deactivate the current pair and keep its companion pair,     
 resulting in asymmetric contact.                                        
 Contact algorithm: Augmented Lagrange method
 Contact detection at: Gauss integration point
 Contact stiffness factor FKN                  10.000    
 The resulting initial contact stiffness      0.10000E+07
 Default penetration tolerance factor FTOLN   0.10000    
 The resulting penetration tolerance          0.19793    
 Default opening contact stiffness OPSF will be used.
 Default tangent stiffness factor FKT          1.0000    
 Default elastic slip factor SLTOL            0.50000E-02
 The resulting elastic slip tolerance         0.10397E-01
 Update contact stiffness at each iteration
 Default Max. friction stress TAUMAX          0.10000E+21
 Average contact surface length                2.0795    
 Average contact pair depth                    1.9793    
 User defined pinball region PINB             0.37256    
 Initial penetration/gap is excluded.
 Bonded contact (always) is defined.

 *** NOTE ***                            CP =       0.078   TIME= 11:12:27
 Max.  Initial penetration 0.31680984 was detected between contact       
 element 13132 and target element 13248.                                 
 You may move entire target surface by : x= 0.316762837, y=              
 1.786999906E-03, z= 5.156185101E-03,to reduce initial penetration.      
 *WARNING*: The geometric gap/penetration may be too large.  Increase    
 pinball radius if it is a true geometric gap/penetration.  Decrease     
 pinball if it is a false one.                                           
 ****************************************
  

 *** NOTE ***                            CP =       0.078   TIME= 11:12:27
 Symmetric Deformable- deformable contact pair identified by real        
 constant set 4 and contact element type 3 has been set up.  The         
 companion pair has real constant set ID 3.  Both pairs should have the  
 same behavior.                                                          
 ANSYS will keep the current pair and deactivate its companion pair,     
 resulting in asymmetric contact.                                        
 Contact algorithm: Augmented Lagrange method
 Contact detection at: Gauss integration point
 Contact stiffness factor FKN                  10.000    
 The resulting initial contact stiffness      0.10000E+07
 Default penetration tolerance factor FTOLN   0.10000    
 The resulting penetration tolerance          0.40000    
 Default opening contact stiffness OPSF will be used.
 Default tangent stiffness factor FKT          1.0000    
 Default elastic slip factor SLTOL            0.50000E-02
 The resulting elastic slip tolerance         0.57186E-02
 Update contact stiffness at each iteration
 Default Max. friction stress TAUMAX          0.10000E+21
 Average contact surface length                1.1437    
 Average contact pair depth                    4.0000    
 User defined pinball region PINB             0.37256    
 Initial penetration/gap is excluded.
 Bonded contact (always) is defined.

 *** NOTE ***                            CP =       0.078   TIME= 11:12:27
 Max.  Initial penetration 0.320219573 was detected between contact      
 element 13159 and target element 13092.                                 
 You may move entire target surface by : x= -0.320177441, y=             
 3.590468036E-03, z= -3.753619004E-03,to reduce initial penetration.     
 *WARNING*: The geometric gap/penetration may be too large.  Increase    
 pinball radius if it is a true geometric gap/penetration.  Decrease     
 pinball if it is a false one.                                           
 ****************************************
  
  
  

  
  
     D I S T R I B U T E D   D O M A I N   D E C O M P O S E R
  
  ...Number of elements: 13353
  ...Number of nodes:    61651
  ...Decompose to 2 CPU domains
  ...Element load balance ratio =     1.021


                      L O A D   S T E P   O P T I O N S

   LOAD STEP NUMBER. . . . . . . . . . . . . . . .     1
   TIME AT END OF THE LOAD STEP. . . . . . . . . .  1.0000    
   AUTOMATIC TIME STEPPING . . . . . . . . . . . .    ON
      INITIAL NUMBER OF SUBSTEPS . . . . . . . . .     1
      MAXIMUM NUMBER OF SUBSTEPS . . . . . . . . .     1
      MINIMUM NUMBER OF SUBSTEPS . . . . . . . . .     1
   MAXIMUM NUMBER OF EQUILIBRIUM ITERATIONS. . . .     1
   STEP CHANGE BOUNDARY CONDITIONS . . . . . . . .    NO
   TERMINATE ANALYSIS IF NOT CONVERGED . . . . . .YES (EXIT)  
   CONVERGENCE CONTROLS. . . . . . . . . . . . . .USE DEFAULTS
   PRINT OUTPUT CONTROLS . . . . . . . . . . . . .NO PRINTOUT
   DATABASE OUTPUT CONTROLS
      ITEM     FREQUENCY   COMPONENT
       ALL       NONE               
      NSOL        ALL               
      RSOL        ALL               
      STRS        ALL               
      EPEL        ALL               
      EPPL        ALL               


 SOLUTION MONITORING INFO IS WRITTEN TO FILE= file.mntr                                                                                                                                                                                                                                                           



                         ***********  PRECISE MASS SUMMARY  ***********

   TOTAL RIGID BODY MASS MATRIX ABOUT ORIGIN
               Translational mass               |   Coupled translational/rotational mass
        0.75453E-03    0.0000        0.0000     |     0.0000       0.37742E-01  -0.37717E-01
         0.0000       0.75453E-03    0.0000     |   -0.37742E-01    0.0000      -0.10104E-02
         0.0000        0.0000       0.75453E-03 |    0.37717E-01   0.10104E-02    0.0000    
     ------------------------------------------ | ------------------------------------------
                                                |         Rotational mass (inertia)
                                                |     4.9806       0.15002      -0.61585E-01
                                                |    0.15002        2.5771       -1.8864    
                                                |   -0.61585E-01   -1.8864        2.5744    

   TOTAL MASS = 0.75453E-03
     The mass principal axes coincide with the global Cartesian axes

   CENTER OF MASS (X,Y,Z)=   -1.3391        49.988        50.020    

   TOTAL INERTIA ABOUT CENTER OF MASS
         1.2073       0.99513E-01  -0.11213    
        0.99513E-01   0.68788       0.22244E-03
       -0.11213       0.22244E-03   0.68763    

   PRINCIPAL INERTIAS =    1.2474       0.68799       0.64738    
   ORIENTATION VECTORS OF THE INERTIA PRINCIPAL AXES IN GLOBAL CARTESIAN
     ( 0.966, 0.172,-0.193) (-0.001, 0.749, 0.662) ( 0.259,-0.639, 0.724) 


  *** MASS SUMMARY BY ELEMENT TYPE ***

  TYPE      MASS
     1  0.753914E-03
     2  0.612202E-06

 Range of element maximum matrix coefficients in global coordinates
 Maximum = 1854075.45 at element 13159.                                  
 Minimum = 113900.711 at element 51.                                     

   *** ELEMENT MATRIX FORMULATION TIMES
     TYPE    NUMBER   ENAME      TOTAL CP  AVE CP

        1     13005  SOLID186      0.000   0.000000
        2        67  SHELL181      0.000   0.000000
        3       107  CONTA174      0.000   0.000000
        4       107  TARGE170      0.000   0.000000
        5        67  SURF154       0.000   0.000000
 Time at end of element matrix formulation CP = 9.375E-02.               
     FORCE CONVERGENCE VALUE  =  0.4219E+06  CRITERION=   2153.    
     MOMENT CONVERGENCE VALUE =  0.3545E-13  CRITERION=  0.5102E-04

 DISTRIBUTED SPARSE MATRIX DIRECT SOLVER.
  Number of equations =      179685,    Maximum wavefront =    486

 *** NOTE ***                            CP =       0.219   TIME= 11:12:28
 The initial memory allocation (-m) has been exceeded.                   
  Supplemental memory allocations are being used.                        

  Local memory allocated for solver              =   1096.764 MB
  Local memory required for in-core solution     =    965.366 MB
  Local memory required for out-of-core solution =    293.966 MB

  Total memory allocated for solver              =   2174.855 MB
  Total memory required for in-core solution     =   1913.958 MB
  Total memory required for out-of-core solution =    581.459 MB

 *** NOTE ***                            CP =       0.219   TIME= 11:12:28
 The Distributed Sparse Matrix Solver is currently running in the        
 in-core memory mode.  This memory mode uses the most amount of memory   
 in order to avoid using the hard drive as much as possible, which most  
 often results in the fastest solution time.  This mode is recommended   
 if enough physical memory is present to accommodate all of the solver   
 data.                                                                   
 curEqn=  55093  totEqn=  89967 Job CP sec=      0.312
      Factor Done=  50% Factor Wall sec=      2.082 rate=   35615.3 Mflops
 curEqn=  89967  totEqn=  89967 Job CP sec=      0.484
      Factor Done= 100% Factor Wall sec=      4.224 rate=   35108.4 Mflops
 Distributed sparse solver maximum pivot= 4439434.15 at node 57313 UY.   
 Distributed sparse solver minimum pivot= 340.644549 at node 21 ROTX.    
 Distributed sparse solver minimum pivot in absolute value= 340.644549   
 at node 21 ROTX.                                                        
     DISP CONVERGENCE VALUE   =  0.1033E-01  CRITERION=  0.5271E-03

   *** ELEMENT RESULT CALCULATION TIMES
     TYPE    NUMBER   ENAME      TOTAL CP  AVE CP

        1     13005  SOLID186      0.062   0.000005
        2        67  SHELL181      0.000   0.000000
        3       107  CONTA174      0.000   0.000000
        5        67  SURF154       0.000   0.000000

   *** NODAL LOAD CALCULATION TIMES
     TYPE    NUMBER   ENAME      TOTAL CP  AVE CP

        1     13005  SOLID186      0.000   0.000000
        2        67  SHELL181      0.000   0.000000
        3       107  CONTA174      0.000   0.000000
        5        67  SURF154       0.000   0.000000
 *** LOAD STEP     1   SUBSTEP     1  COMPLETED.    CUM ITER =      1
 *** TIME =   1.00000         TIME INC =   1.00000      NEW TRIANG MATRIX


 *** ANSYS BINARY FILE STATISTICS
  BUFFER SIZE USED= 16384
       44.125 MB WRITTEN ON ELEMENT SAVED DATA FILE: file0.esav
       90.875 MB WRITTEN ON ASSEMBLED MATRIX FILE: file0.full
       10.500 MB WRITTEN ON RESULTS FILE: file0.rst
 *************** Write FE CONNECTORS *********

 WRITE OUT CONSTRAINT EQUATIONS TO FILE= file.ce                                                                                                                                                                                                                                                             
 ****************************************************
 *************** FINISHED SOLVE FOR LS 1 *************

 PARAMETER _DS_PROGRESS  DELETED.

 *GET  _WALLASOL  FROM  ACTI  ITEM=TIME WALL  VALUE=  11.2091667    

 PRINTOUT RESUMED BY /GOP

 FINISH SOLUTION PROCESSING


 ***** ROUTINE COMPLETED *****  CP =         0.516



 *** ANSYS - ENGINEERING ANALYSIS SYSTEM  RELEASE Release 18.0     18.0     ***
 DISTRIBUTED ANSYS Multiphysics                                

 00000000  VERSION=WINDOWS x64   11:12:33  NOV 30, 2023 CP=      0.516

 unsaved_project--Static Structural (A5)                                       



          ***** ANSYS RESULTS INTERPRETATION (POST1) *****

 *** NOTE ***                            CP =       0.516   TIME= 11:12:33
 Reading results into the database (SET command) will update the current 
 displacement and force boundary conditions in the database with the     
 values from the results file for that load set.  Note that any          
 subsequent solutions will use these values unless action is taken to    
 either SAVE the current values or not overwrite them (/EXIT,NOSAVE).    

 Set Encoding of XML File to:ISO-8859-1

 Set Output of XML File to:
     PARM,     ,     ,     ,     ,     ,     ,     ,     ,     ,     ,     ,
         ,     ,     ,     ,     ,     ,     ,

 DATABASE WRITTEN ON FILE  parm.xml                                                                                                                                                                                                                                                            

 EXIT THE ANSYS POST1 DATABASE PROCESSOR


 ***** ROUTINE COMPLETED *****  CP =         0.516



 PRINTOUT RESUMED BY /GOP

 *GET  _WALLDONE  FROM  ACTI  ITEM=TIME WALL  VALUE=  11.2091667    

 PARAMETER _PREPTIME =     0.000000000    

 PARAMETER _SOLVTIME =     6.000000000    

 PARAMETER _POSTTIME =     0.000000000    

 PARAMETER _TOTALTIM =     6.000000000    

 EXIT ANSYS WITHOUT SAVING DATABASE


 NUMBER OF WARNING MESSAGES ENCOUNTERED=          3
 NUMBER OF ERROR   MESSAGES ENCOUNTERED=          0

+--------- D I S T R I B U T E D   A N S Y S   S T A T I S T I C S ------------+

Release: Release 18.0       Build: 18.0       Update: UP20161219   Platform: WINDOWS x64 
Date Run: 11/30/2023   Time: 11:12     Process ID: 10796
Operating System: Windows 10  (Build: 22621)

Processor Model: 13th Gen Intel(R) Core(TM) i9-13900H

Compiler: Intel(R) FORTRAN Compiler Version 15.0.7  (Build: 20160518)
          Intel(R) C/C++ Compiler Version 15.0.7  (Build: 20160518)
          Intel(R) Math Kernel Library Version 11.3.3 Product Build 20160413

Number of machines requested            :    1
Total number of cores available         :   20
Number of physical cores available      :   14
Number of processes requested           :    2
Number of threads per process requested :    1
Total number of cores requested         :    2 (Distributed Memory Parallel)               
MPI Type: INTELMPI
MPI Version: Intel(R) MPI Library 5.1.3 for Windows* OS


GPU Acceleration: Not Requested

Job Name: file0
Input File: dummy.dat

  Core                Machine Name   Working Directory
  ----------------------------------------------------
     0             DESKTOP-7OHJDQC   C:\Users\hp\AppData\Local\Temp\WB_DESKTOP-7OHJDQC_hp_10344_2\_ProjectScratch\ScrBBAD
     1             DESKTOP-7OHJDQC   C:\Users\hp\AppData\Local\Temp\WB_DESKTOP-7OHJDQC_hp_10344_2\_ProjectScratch\ScrBBAD
 
Latency time from master to core    1 =    0.862 microseconds
 
Communication speed from master to core    1 =  7809.05 MB/sec

Total CPU time for main thread                    :        0.5 seconds
Total CPU time summed for all threads             :        0.5 seconds

Elapsed time spent pre-processing model (/PREP7)  :        0.1 seconds
Elapsed time spent solution - preprocessing       :        0.2 seconds
Elapsed time spent computing solution             :        6.2 seconds
Elapsed time spent solution - postprocessing      :        0.0 seconds
Elapsed time spent post-processing model (/POST1) :        0.0 seconds
 
Equation solver used                              :            Sparse (symmetric)
Equation solver computational rate                :    69230.8 Mflops

Maximum total memory used                         :     2298.0 MB
Maximum total memory allocated                    :     5080.0 MB
Total physical memory available                   :         32 GB

+------ E N D   D I S T R I B U T E D   A N S Y S   S T A T I S T I C S -------+


 *---------------------------------------------------------------------------*
 |                                                                           |
 |                       DISTRIBUTED ANSYS RUN COMPLETED                     |
 |                                                                           |
 |---------------------------------------------------------------------------|
 |                                                                           |
 | Ansys Release 18.0          Build 18.0         UP20161219     WINDOWS x64 |
 |                                                                           |
 |---------------------------------------------------------------------------|
 |                                                                           |
 | Database Requested(-db)  1024 MB    Scratch Memory Requested      1024 MB |
 | Maximum Database Used      29 MB    Maximum Scratch Memory Used   1144 MB |
 |                                                                           |
 |---------------------------------------------------------------------------|
 |                                                                           |
 |        CP Time      (sec) =          0.516       Time  =  11:12:33        |
 |        Elapsed Time (sec) =          7.000       Date  =  11/30/2023      |
 |                                                                           |
 *---------------------------------------------------------------------------*
